-----------------------------------------------------------------------------------------------------------------
-- This is Low salinity water injection example data set. To make relative permeability  
-- and capillary pressure salinity dependent to mimic a decrease of residual oil saturatoin 
-- induced by fresh water injection. 
-- 3 phase. New Keywords added: LOWSALT, LSALTFNC, LWSLTNUM, LSLTWNUM. For more info read Brine Tracking Option.
-----------------------------------------------------------------------------------------------------------------
RUNSPEC     ==================================================================================================
TITLE
 Fresh water injection - 2 phase model /

DIMENS
   50   50    6  /

OIL
WATER

LOWSALT
-- automatically turns on Brine option

METRIC

TABDIMS
    2    1   20   20    1   20 /

WELLDIMS
    4    10    1    4 /

START
   1 'JAN' 2012  /

UNIFIN
UNIFOUT

NSTACK
  50 /


--NOSIM
GRID      ==============================================================

INIT

DX
  15000*3   /
DY
  15000*3   /
DZ
  15000*3   /

NOECHO
INCLUDE
  permx15000.dat /
  
INCLUDE
  permy15000.dat /
  
INCLUDE
  permz15000.dat /

INCLUDE
  poro15000.dat /

ECHO
TOPS
 2500*2600 /
 
PROPS     ==============================================================
--
-- connate water is 100,000 PPM = 100 Kg/m3

LSALTFNC
-- F1 = 0 for high salinity
-- F1 = 1 for low salinity
--Salt  F1
--conc  factor
--LSALTFNC Table    
--conc    F1      F2 
--        factor  factor
--kg/sm3    
    0     1.0       1*     
    20    0.8       1*  
    40    0.6       1*  
    60    0.4       1*  
    80    0.2       1*  
    100   0.0       1*  
/

/

--   High salinity curves
      
SWOF
--       SWAT         KRW          KROW      PCOW
          0.2             0       0.6           0
          0.24            0       0.4           0
        0.2679            0       0.2661        0
        0.2857       0.0001       0.2268        0
        0.3036       0.0003       0.1905        0
        0.3214        0.001       0.1575        0
        0.3393       0.0024       0.1276        0
        0.3571       0.0051       0.1008        0
         0.375       0.0094       0.0772        0
        0.3929        0.016       0.0567        0
        0.4107       0.0256       0.0394        0
        0.4286        0.039       0.0252        0
        0.4464       0.0572       0.0142        0
        0.4643        0.081       0.0063        0
        0.4821       0.1115       0.0016        0
           0.5         0.15            0        0
             1            1            0        0
  /
--   Low salinity curves  
           0.2            0        0.6          0
           0.4            0        0.269        0
        0.4179        0.001       0.2407        0
        0.4357       0.0041       0.2134        0
        0.4536       0.0092       0.1873        0
        0.4714       0.0163       0.1624        0
        0.4893       0.0255       0.1386        0
        0.5071       0.0367       0.1162        0
        0.525        0.05         0.1           0 
        0.5429       0.0653       0.085         0 
        0.5607       0.0827       0.07          0 
        0.5786       0.102        0.06          0 
        0.5964       0.1235       0.05          0 
        0.6143       0.1469       0.04          0 
        0.6321       0.1724       0.034         0 
        0.7          0.27         0.015         0
        0.75         0.4          0.005         0 
        0.8          0.8          0             0
        1            1            0             0
  /

PVDO
  200    1.0     0.47
  280    0.999   0.47
  300    0.998   0.47
/

/
ROCK
 270 .3E-5 /

DENSITY
-- o   w    g
 850. 1000. 1.2 /
 
PVTWSALT
-- Ref     ref salt conc
-- Press   stock tank water
-- barsa
   270.0       0.0  /
-- salt   FVF   water   water  water
-- conc         compres visc  viscosibility
    0.0  1.030  4.6E-5  0.5     0.0
  100.0  1.030  4.6E-5  0.5     0.0 /

REGIONS    =============================================================

SATNUM
-- immiscible, high salinity = 1
 15000*1 /

LWSLTNUM
-- low salinity curves
 15000*2
/

RPTREGS
 24*0 /

RPTREGS
SURFNUM LWSLTNUM LSLTWNUM /

SOLUTION   =============================================================

EQUIL
-- Datum   Pressure   WOC
2680       270        2680 1*  2000/

SALTVD
-- depth  salt
-- meters conc
--         kg/m3
   5000.0  100.0
   5500.0  100.0 /

RPTRST
'BASIC=2'  FIPSALT  SALT  /

SUMMARY    ===========================================================
FOPT
WWIT
/

FSPR
FSPT
FSIR
FSIT
FSIP
FWIR
FOPR
FGPR
FOPT
FPR
FOPV
FWIT
FOE
TCPU
GSPR
 'G' /

GSPT
 'G' /
GSIR
 'G' /
GSIT
 'G' /
GSPR
 'G' /
WSPR
 'OP' /
WSPT
 'OP' /
WSIR
'INJ' /
WSIT
'OP ' /
WBHP
/
WOPR
'OP' /
WGPR
'OP' /
WLPR
'OP' /
WWPR
'OP' /
WWCT
'OP' /
WWIR
'INJ'/
CSFR
 'OP'  15 15 1 /      con. salt flow rate (+/-)
 'INJ'  1 1 1 /
/
CSPT
 'OP'  15 15 1 /
/
CSIT
 'INJ'  1 1 1 /
/

BSCN
 1 1 1 /
 1 1 2 /
 4 4 1 /
 5 5 1 /
 7 7 1 /
10 10 1 /
12 12 1 /
14 14 1 /
15 15 1 /
/
BSIP
 1 1 1 / salt in place
 1 1 2 /
 4 4 1 /
 5 5 1 /
 7 7 1 /
10 10 1 /
12 12 1 /
14 14 1 /
15 15 1 /
/

BPR
 1 1 1 /
 1 1 2 /
 4 4 1 /
 5 5 1 /
 7 7 1 /
10 10 1 /
12 12 1 /
14 14 1 /
15 15 1 /
 /

BOSAT
 1 1 1 /
 1 1 2 /
 4 4 1 /
 5 5 1 /
 7 7 1 /
10 10 1 /
12 12 1 /
14 14 1 /
15 15 1 /

/
BGSAT
 1 1 1 /
 1 1 2 /
 4 4 1 /
 5 5 1 /
 7 7 1 /
10 10 1 /
12 12 1 /
14 14 1 /
15 15 1 /
/
BWSAT
 1 1 1 /
 1 1 2 /
 4 4 1 /
 5 5 1 /
 7 7 1 /
10 10 1 /
12 12 1 /
14 14 1 /
15 15 1 /
/
BWVIS
 1 1 1 /
 1 1 2 /
 4 4 1 /
 5 5 1 /
 7 7 1 /
10 10 1 /
12 12 1 /
14 14 1 /
15 15 1 /
/


BOKR
 1 1 1 /
 1 1 2 /
 4 4 1 /
 5 5 1 /
 7 7 1 /
10 10 1 /
12 12 1 /
14 14 1 /
15 15 1 /
/
BGKR
 1 1 1 /
 1 1 2 /
 4 4 1 /
 5 5 1 /
 7 7 1 /
10 10 1 /
12 12 1 /
14 14 1 /
15 15 1 /
/
BWKR
 1 1 1 /
 1 1 2 /
 4 4 1 /
 5 5 1 /
 7 7 1 /
10 10 1 /
12 12 1 /
14 14 1 /
15 15 1 /
/
BWKR
 1 1 1 /
 1 1 2 /
 4 4 1 /
 5 5 1 /
 7 7 1 /
10 10 1 /
12 12 1 /
14 14 1 /
15 15 1 /
/

ALL
SEPARATE
RUNSUM
MSUMLINS
MSUMNEWT
--RPTONLY

SCHEDULE   ===========================================================

TUNING
  .01  4 /
 /
  2*  50 /

WELSPECS
'OP'   'G'   50 50  2600  'OIL'  /
'INJ'  'G'   1  1   2600  'WAT'  /
/
COMPDAT
--   1    2    3    4   5     6     7   8    9
  OP      1*   1*   1   6  'OPEN'   0  .0   0.5 /
  INJ     1*   1*   1   6  'OPEN'   0  .0   0.5 /
/

WCONPROD
 OP  OPEN  RESV  4* 100 0.0 4* /
/

WCONINJE
 INJ    WAT   OPEN  'RESV' 1* 100  /
/

-- inject produced brine
WSALT
INJ 100.0 /
/

TSTEP
  0.001  /

TSTEP
    37*30  /


END


