--
RUNSPEC

METRIC

HWELLS

OIL
WATER
GAS

MISCIBLE
/

AIM

COMPS
9 /

BRINE

DIMENS                             
  37 37 50 /

WELLDIMS
4 200 /

EQLDIMS
1 20 /

TABDIMS                           
  3 11* 1 /

START
1 Jan 2011 /

--Grid section--------------------------------------------------------

GRID

MINPV
10 /

INIT

NOECHO 

INCLUDE
'skarv_model.GRDECL' /

PORO 
68450*0.18 /
PERMX 
68450*450 /

COPY
PERMX PERMY /
/

PERMZ 
68450*45 /

ECHO          

--Edit section-----------------------------------------------------
EDIT

-------- IX1-IX2 JY1-JY2 KZ1-KZ2
BOX
	 28  28  27   27   1   50 /
PORV
50*3000 /

ENDBOX
BOX
	 29  29  26   26   1   50 /
PORV
50*3000 /

ENDBOX


--Properties section-----------------------------------------------

PROPS

EOS                                 
  PR /

PRCORR                                

CNAMES                               
 C1N2 CO2 C2 C3C4 C5C6 C7C10 C11C15 C16C30 C31P /

TCRIT                                 
  189.63 304.12 305.32 389.27 486.35 576.67 674.54 784.42 932.28 /

PCRIT                                
  45.8255 73.7400 48.7200 40.4223 33.3613 26.8979 19.9467 14.2005 9.2233 /

VCRIT                               
  0.09849 0.09407 0.14550 0.22114 0.33637 0.48706 0.73445 1.18701 2.40543 /

ZCRIT                                
  0.28626 0.27433 0.27924 0.27619 0.27751 0.27324 0.26121 0.25845 0.28622 /

MW                                    
  16.19 44.01 30.07 49.29 77.57 117.51 178.63 295.97 567.26 /

ACF                                    
  0.01122 0.225 0.099 0.16878 0.2457 0.34303 0.50473 0.74404 1.20313 /

OMEGAA                                
  9*0.457236 /

OMEGAB                                
  9*0.077796 /

SSHIFT                               
  -0.15016 0.00191 -0.0628 -0.06049 -0.03022 -0.01316 0.05963 0.08266 0.08815 /

BIC                                   
  0.10401 -0.00012 0.13 0.00052 0.1213 0.0 0.00065 0.115 0.0 0.0 0.05579 0.115 0.0 0.0 0.0 0.08091 0.115 0.0 0.0 0.0 0.0 0.10726
  0.115 5*0.0 0.11793 0.115 6*0.0 /

PARACHOR                             
  70.85 80 111 165.6 233.23 317.02 463.7 745.33 1396.41 /

TEMPVD                                 
  0.30 123.00
  3584.11 123.00
  3584.14 123.00
  4572.00 123.00
  /

ZMFVD                               
  0.30
  0.817312 0.021201 0.0606 0.045879 0.013869 0.026938 0.010192 0.003902 0.000106
  3584.11
  0.817312 0.021201 0.0606 0.045879 0.013869 0.026938 0.010192 0.003902 0.000106
  3584.14
  0.564512 0.018928 0.063168 0.061895 0.026888 0.089039 0.068128 0.081652 0.02579
  4572.00
  0.564512 0.018928 0.063168 0.061895 0.026888 0.089039 0.068128 0.081652 0.02579
  /

DENSITY                               
  1*   1035 /

ROCKOPTS                             
  1* 1* ROCKNUM /

ROCK                                  
  370.3174  5.8015E-005 /

FILLEPS                            

SWOF                               
          0.25            0            1            0
         0.278       4E-007      0.81814            0
         0.317       3E-005      0.60816            0
          0.39      0.00088       0.3276            0
         0.432       0.0031      0.21913            0
         0.514      0.01846      0.08758            0
         0.546      0.03197      0.05752            0
           0.6      0.07147       0.0253            0
           0.7      0.23879      0.00296            0
          0.75      0.39596      0.00054            0
           0.8      0.62566       3E-005            0
          0.85         0.95            0            0
           0.9            1            0            0
             1            1            0            0
  /
          0.02            0            1            0
          0.11       2E-005      0.61751            0
         0.124       4E-005      0.56991            0
         0.177      0.00032      0.41451            0
         0.245      0.00181        0.265            0
         0.278      0.00348      0.20938            0
         0.317      0.00685      0.15564            0
          0.39      0.01966      0.08384            0
         0.432      0.03293      0.05608            0
         0.514      0.07871      0.02241            0
         0.546      0.10638      0.01472            0
           0.6      0.17006      0.00647            0
           0.7      0.36491      0.00076            0
           0.8      0.70502       1E-005            0
          0.85         0.95            0            0
           0.9            1            0            0
             1            1            0            0
  /
           0.5            0            1            0
         0.546       6E-005      0.55333            0
           0.6      0.00232      0.24337            0
          0.65      0.01627      0.09533            0
           0.7      0.06474      0.02848            0
          0.75      0.18893      0.00519            0
           0.8      0.45329      0.00028            0
          0.85         0.95            0            0
           0.9            1            0            0
             1            1            0            0
  /

SGOF                              
             0            0            1            0
         0.035            0      0.77691            0
         0.118      0.01348      0.39862            0
         0.158      0.02959      0.27704            0
         0.186       0.0446      0.21046            0
         0.223      0.06914      0.14204            0
          0.27      0.10802      0.08119            0
         0.292       0.1292      0.06077            0
         0.315      0.15336      0.04386            0
         0.336      0.17722      0.03181            0
         0.363      0.21044      0.02022            0
         0.393       0.2507      0.01145            0
         0.414      0.28097      0.00731            0
          0.43       0.3052      0.00501            0
         0.454      0.34341      0.00264            0
           0.5      0.42295      0.00054            0
           0.6      0.62443            0            0
          0.75            1            0            0
  /
             0            0            1            0
         0.035            0      0.83448            0
         0.118      0.00771      0.52516            0
         0.158      0.01694      0.41193            0
         0.186      0.02553       0.3445            0
         0.223      0.03958       0.2687            0
          0.27      0.06184      0.19154            0
         0.292      0.07396      0.16187            0
         0.315      0.08779      0.13473            0
         0.336      0.10145      0.11312            0
         0.363      0.12047      0.08933            0
         0.393      0.14352      0.06759            0
         0.414      0.16085      0.05496            0
          0.43      0.17472      0.04661            0
         0.454      0.19659      0.03595            0
           0.5      0.24213      0.02078            0
           0.6      0.35746      0.00456            0
          0.74      0.55656       9E-005            0
          0.83      0.70773            0            0
          0.89      0.81859            0            0
          0.98            1            0            0
  /
             0            0            1            0
         0.035            0      0.64242            0
         0.118      0.03186      0.17781            0
         0.158      0.06997      0.08031            0
         0.186      0.10545      0.04142            0
         0.223      0.16346      0.01415            0
          0.27      0.25541      0.00203            0
         0.292      0.30546      0.00053            0
         0.315      0.36259       6E-005            0
         0.336        0.419       1E-006            0
          0.35       0.4589            0            0
         0.393      0.59273            0            0
         0.414      0.66431            0            0
          0.43      0.72159            0            0
         0.454      0.81194            0            0
           0.5            1            0            0
  / 

PVTWSALT
-- Pref Sref
  137 0.0 /
--  S   Bw       Cw         Vw      Cvw       
--      RB/STB   1/bar      CPOISE  1/bar  
   0.0  1.057    4.68e-005 0.25    0.0
  28.5  0.975    4.68e-005 0.25    0.0
  57.0  0.95     4.68e-005 0.25    0.0
/

--Solution section------------------------------------------------------

SOLUTION

EQUIL
-- option 2 - Gas-oil contact, with vapor composition specified at contact. 
-- Pressure at datum depth will be set to retrograde dew point pressure
3584.1  370.66 3710    0   3584.1  0 0 0 0 2 /

SALTVD
-- m | kg/m3
  304  30
  4000 30 
/

FIELDSEP                     
  1 92 80 1* 1* 1* 1* 1 /
  2 83 25 1* 1* 1* 1* 1 /
  3 99 3 1* 1* 1* 1* 1 /
  4 15.6 1 1* 1* 1* 1* 1 /
  /


--RPTSOL
--PRESSURE SOIL SWAT SGAS PSAT /

RPTRST
BASIC=2 PRESSURE SOIL SGAS SWAT DENW FIP RPORV PSAT/

--regions section-------------------------------------------------------

REGIONS

NOECHO                            

SATNUM
  68450*1 /

ROCKNUM                             
  68450*1 /

EOSNUM                               
  68450*1 /

PVTNUM                                
  68450*1 /

EQLNUM                               
  68450*1 /

ECHO


--Summary section-------------------------------------------------------
SUMMARY

ALL

FOE
-- reservoir volume
-Pore Volume at Reservoir conditions
FRPV

--Brine option quantities
FSPR
WSPR
/
FSPT
WSPT
/
FSIR
WSIR
/
FSIT
WSIT
/
FSIP

--Schedule section------------------------------------------------------

SCHEDULE

--Request FIP reports, group, sep and well data, and solution maps.
SAVEEND

INCLUDE
'skarv_schedule.INC'

---------------------------------------------------------------------------

GRUPTREE                               
  INJECTOR FIELD /
  PRODUCER FIELD /
  /

--GECON                                  
--  PRODUCER 1000/
--  /

WCONPROD
--                 O  W  G  L Res                                
  Prod_B6 OPEN ORAT 2300 1* 1* 1* 1* 100 /
  Prod_B8 OPEN ORAT 1750 1* 1* 1* 1* 100 /
  /

--WECON                                  
--  Prod_B6 1* 1* 1* 6.0000 1* CON /
--  Prod_B8 1* 1* 1* 6.0000 1* CON /
--  /

WCONINJE
--                                
  Inje_B2 GAS OPEN RATE 1982179 1* 400 /
  /

WELLSTRE
--       C1N2 CO2  C2   C3C4 C5C6 C7C10 C11C15 C16C30 C31P /
SOLVENT  0.65 0.01  0.34 0.0  0.0  /
CO2      0.01 0.98 0.01 0.0  0.0  /
/

WINJGAS                                
  Inje_B2 STREAM SOLVENT /
  /

TSTEP
--1 6*30 5*365.25/
--5*365.25 /
11*30/
--------------------------------------------------------------------------

END