-- THIS IS A SIMPLE 5 BY 5 QUARTER FIVE SPOT
-- QFIVE.DATA from eclipse
--
RUNSPEC
TITLE
 THIS LINE IS A RUN TITLE

DIMENS
    25    25    1  /

OIL

WATER

FIELD

TABDIMS
    1    1   20    2    1   20 /

WELLDIMS
    5    5    5    2 /

START
   1 'JAN' 2000  /

NSTACK
    8 /

FMTOUT

FMTIN

GRID      ==============================================================
INIT

NOECHO

DXV
   25*20.0 /

PERMX
  625*50.0 /

PERMY
  625*50.0 /

DYV
   25*20.0 /

DZ
  625*50.0 /

TOPS
  625*5000.0 /

PERMY
  625*50.0 /

PORO
  625*0.2 /

RPTGRID
-- Report Levels for Grid Section Data
-- 
'DX' 
'DY' 
'DZ' 
'PERMX' 
'PERMY' 
 / 

PROPS     ==============================================================

SWFN
    .25    .0    4.0
    .7    1.0     .0
/

SOF2       1 TABLES   20 NODES IN EACH           FIELD   13:34  5 MAY 85
    .1778  .0000
    .7500 1.0000
/

PVTW
  .0  1.0  3.03E-06  .5  0.0 /

PVDO
  .0     1.0     2.0
 8000.0   .92    2.0
/

ROCK
 5000.0         4E-06 /

DENSITY
 55.0000  62.43   .04400 /

RPTPROPS
     /

REGIONS    =============================================================

SATNUM
 625*1 /

SOLUTION   =============================================================

EQUIL
5000  4000  6000  0   0   0   0   0   0  /

RPTSOL
-- Initialisation Print Output
-- 
'PRES' 'SWAT' /

RPTRST
BASIC=2 FLOWS /

SUMMARY    ===========================================================

BPR
1 1 1
/

FOIP
FOPT
FOPR
FGIP
FGPT
FWPT

WBHP
/

FWCT

FPR

RUNSUM
SEPARATE

SCHEDULE   ===========================================================

RPTRST
BASIC=2 FLOWS /

RPTSCHED                                         FIELD   16:55 18 APR 86
 'PRES' 'SWAT' 'RESTART=1' 'CPU=2' /

WELSPECS
'I'   'G'   i_coord j_coord   5000  'WAT'  /
'P1'  'G'   1   1   5000  'OIL'  /
'P2'  'G'   1   25  5000  'OIL'  /
'P3'  'G'   25  1   5000  'OIL'  /
'P4'  'G'   25  25  5000  'OIL'  /
/

COMPDAT
'I'    i_coord j_coord   1   1 'OPEN'   0  .0   1.0 /
'P1'   1   1    1   1 'OPEN'   0  .0   1.0 /
'P2'   1   25   1   1 'OPEN'   0  .0   1.0 /
'P3'   25  1    1   1 'OPEN'   0  .0   1.0 /
'P4'   25  25   1   1 'OPEN'   0  .0   1.0 /
/

WCONPROD
'P1' 'OPEN' 'BHP' 5* 3999.0 /
'P2' 'OPEN' 'BHP' 5* 3999.0 /
'P3' 'OPEN' 'BHP' 5* 3999.0 /
'P4' 'OPEN' 'BHP' 5* 3999.0 /
/

WCONINJE
'I' 'WAT' 'OPEN' 'RATE' 200.0 /
/

TSTEP
50 50 50
/

END
